@<TRIPOS>MOLECULE
*****
 39 40 0 0 0
SMALL
GASTEIGER

@<TRIPOS>ATOM
      1 C           0.6023   -0.2574    1.4712 C.ar      1LIG1         0.1205
      2 O          -0.2283    0.0886    2.5800 O.3       1LIG1        -0.4920
      3 C          -1.3406    0.9772    2.2599 C.3       1LIG1         0.0896
      4 C          -2.2703    0.5572    1.1010 C.3       1LIG1        -0.0175
      5 C          -3.1515   -0.6885    1.3466 C.3       1LIG1        -0.0374
      6 C          -2.6475   -1.9721    0.6790 C.3       1LIG1        -0.0040
      7 N          -2.5489   -1.7938   -0.7984 N.3       1LIG1        -0.3148
      8 C          -1.5667   -2.6872   -1.4798 C.3       1LIG1         0.0084
      9 C          -0.7465   -1.8545   -2.4653 C.3       1LIG1         0.0085
     10 N           0.4722   -2.6000   -2.9041 N.3       1LIG1        -0.3145
     11 C           1.6244   -1.7160   -3.2656 C.3       1LIG1        -0.0001
     12 C           2.6358   -1.5823   -2.1146 C.3       1LIG1        -0.0151
     13 C           1.9739   -1.1079   -0.8452 C.ar      1LIG1        -0.0459
     14 C           1.7911    0.2664   -0.5957 C.ar      1LIG1        -0.0551
     15 C           1.1006    0.6898    0.5516 C.ar      1LIG1        -0.0197
     16 C           1.5964   -2.0382    0.1411 C.ar      1LIG1        -0.0551
     17 C           0.9050   -1.6132    1.2824 C.ar      1LIG1        -0.0197
     18 H          -0.9455    1.9984    2.0537 H         1LIG1         0.0696
     19 H          -1.9619    1.0741    3.1796 H         1LIG1         0.0696
     20 H          -1.6853    0.4584    0.1594 H         1LIG1         0.0298
     21 H          -2.9616    1.4172    0.9403 H         1LIG1         0.0298
     22 H          -3.2645   -0.8706    2.4403 H         1LIG1         0.0279
     23 H          -4.1717   -0.4889    0.9425 H         1LIG1         0.0279
     24 H          -1.6676   -2.2234    1.1343 H         1LIG1         0.0424
     25 H          -3.3474   -2.8093    0.9104 H         1LIG1         0.0424
     26 H          -3.5181   -1.9230   -1.2374 H         1LIG1         0.1220
     27 H          -0.8666   -3.1653   -0.7564 H         1LIG1         0.0436
     28 H          -2.0902   -3.5054   -2.0279 H         1LIG1         0.0436
     29 H          -0.4704   -0.9037   -1.9535 H         1LIG1         0.0436
     30 H          -1.3783   -1.5860   -3.3445 H         1LIG1         0.0436
     31 H           0.2076   -3.1980   -3.7534 H         1LIG1         0.1220
     32 H           1.2808   -0.7027   -3.5842 H         1LIG1         0.0427
     33 H           2.1686   -2.1580   -4.1335 H         1LIG1         0.0427
     34 H           3.1254   -2.5702   -1.9485 H         1LIG1         0.0325
     35 H           3.4350   -0.8658   -2.4149 H         1LIG1         0.0325
     36 H           2.1386    1.0069   -1.3142 H         1LIG1         0.0621
     37 H           0.9306    1.7515    0.7078 H         1LIG1         0.0654
     38 H           1.7854   -3.1012    0.0001 H         1LIG1         0.0621
     39 H           0.5725   -2.3448    2.0157 H         1LIG1         0.0654
@<TRIPOS>BOND
     1    1    2 1
     2    2    3 1
     3    3    4 1
     4    4    5 1
     5    5    6 1
     6    6    7 1
     7    7    8 1
     8    8    9 1
     9    9   10 1
    10   10   11 1
    11   11   12 1
    12   12   13 1
    13   13   14 ar
    14   14   15 ar
    15    1   15 ar
    16   13   16 ar
    17   16   17 ar
    18    1   17 ar
    19    3   18 1
    20    3   19 1
    21    4   20 1
    22    4   21 1
    23    5   22 1
    24    5   23 1
    25    6   24 1
    26    6   25 1
    27    7   26 1
    28    8   27 1
    29    8   28 1
    30    9   29 1
    31    9   30 1
    32   10   31 1
    33   11   32 1
    34   11   33 1
    35   12   34 1
    36   12   35 1
    37   14   36 1
    38   15   37 1
    39   16   38 1
    40   17   39 1
