@<TRIPOS>MOLECULE
*****
 39 40 0 0 0
SMALL
GASTEIGER

@<TRIPOS>ATOM
      1 C           0.0000    0.0000    0.0000 C.ar    1  LIG1        0.1205
      2 O           0.0000    0.0000    0.0000 O.3     1  LIG1       -0.4920
      3 C           0.0000    0.0000    0.0000 C.3     1  LIG1        0.0896
      4 C           0.0000    0.0000    0.0000 C.3     1  LIG1       -0.0175
      5 C           0.0000    0.0000    0.0000 C.3     1  LIG1       -0.0374
      6 C           0.0000    0.0000    0.0000 C.3     1  LIG1       -0.0040
      7 N           0.0000    0.0000    0.0000 N.3     1  LIG1       -0.3148
      8 C           0.0000    0.0000    0.0000 C.3     1  LIG1        0.0084
      9 C           0.0000    0.0000    0.0000 C.3     1  LIG1        0.0085
     10 N           0.0000    0.0000    0.0000 N.3     1  LIG1       -0.3145
     11 C           0.0000    0.0000    0.0000 C.3     1  LIG1       -0.0001
     12 C           0.0000    0.0000    0.0000 C.3     1  LIG1       -0.0151
     13 C           0.0000    0.0000    0.0000 C.ar    1  LIG1       -0.0459
     14 C           0.0000    0.0000    0.0000 C.ar    1  LIG1       -0.0551
     15 C           0.0000    0.0000    0.0000 C.ar    1  LIG1       -0.0197
     16 C           0.0000    0.0000    0.0000 C.ar    1  LIG1       -0.0551
     17 C           0.0000    0.0000    0.0000 C.ar    1  LIG1       -0.0197
     18 H           0.0000    0.0000    0.0000 H       1  LIG1        0.0696
     19 H           0.0000    0.0000    0.0000 H       1  LIG1        0.0696
     20 H           0.0000    0.0000    0.0000 H       1  LIG1        0.0298
     21 H           0.0000    0.0000    0.0000 H       1  LIG1        0.0298
     22 H           0.0000    0.0000    0.0000 H       1  LIG1        0.0279
     23 H           0.0000    0.0000    0.0000 H       1  LIG1        0.0279
     24 H           0.0000    0.0000    0.0000 H       1  LIG1        0.0424
     25 H           0.0000    0.0000    0.0000 H       1  LIG1        0.0424
     26 H           0.0000    0.0000    0.0000 H       1  LIG1        0.1220
     27 H           0.0000    0.0000    0.0000 H       1  LIG1        0.0436
     28 H           0.0000    0.0000    0.0000 H       1  LIG1        0.0436
     29 H           0.0000    0.0000    0.0000 H       1  LIG1        0.0436
     30 H           0.0000    0.0000    0.0000 H       1  LIG1        0.0436
     31 H           0.0000    0.0000    0.0000 H       1  LIG1        0.1220
     32 H           0.0000    0.0000    0.0000 H       1  LIG1        0.0427
     33 H           0.0000    0.0000    0.0000 H       1  LIG1        0.0427
     34 H           0.0000    0.0000    0.0000 H       1  LIG1        0.0325
     35 H           0.0000    0.0000    0.0000 H       1  LIG1        0.0325
     36 H           0.0000    0.0000    0.0000 H       1  LIG1        0.0621
     37 H           0.0000    0.0000    0.0000 H       1  LIG1        0.0654
     38 H           0.0000    0.0000    0.0000 H       1  LIG1        0.0621
     39 H           0.0000    0.0000    0.0000 H       1  LIG1        0.0654
@<TRIPOS>BOND
     1     1     2    1
     2     2     3    1
     3     3     4    1
     4     4     5    1
     5     5     6    1
     6     6     7    1
     7     7     8    1
     8     8     9    1
     9     9    10    1
    10    10    11    1
    11    11    12    1
    12    12    13    1
    13    13    14   ar
    14    14    15   ar
    15     1    15   ar
    16    13    16   ar
    17    16    17   ar
    18     1    17   ar
    19     3    18    1
    20     3    19    1
    21     4    20    1
    22     4    21    1
    23     5    22    1
    24     5    23    1
    25     6    24    1
    26     6    25    1
    27     7    26    1
    28     8    27    1
    29     8    28    1
    30     9    29    1
    31     9    30    1
    32    10    31    1
    33    11    32    1
    34    11    33    1
    35    12    34    1
    36    12    35    1
    37    14    36    1
    38    15    37    1
    39    16    38    1
    40    17    39    1
